sol/case2736sp.m
function mpc = case2736sp
%CASE2736SP

%% MATPOWER Case Format : Version 2
mpc.version = '2';

%%-----  Power Flow Data  -----%%
%% system MVA base
mpc.baseMVA = 100;

%% bus data
%	bus_i	type	Pd	Qd	Gs	Bs	area	Vm	Va	baseKV	zone	Vmax	Vmin	lam_P	lam_Q	mu_Vmax	mu_Vmin
mpc.bus = [
	1	1	0	0	0	0	1	1.10101733	36.8491627	220	1	1.11	0.95	97.9187	0.1740	0.0000	0.0000;
	2	1	0	0	0	0	1	1.10601093	38.569445	220	1	1.11	0.95	97.5445	0.0592	0.0000	0.0000;
	3	1	0	0	0	0	1	1.08435476	13.4439412	220	1	1.11	0.95	110.9409	0.1263	0.0000	0.0000;
	4	1	0	0	0	0	1	1.09235059	32.6652923	220	1	1.11	0.95	99.9201	0.4611	0.0000	0.0000;
	5	1	0	0	0	0	1	1.09238241	32.6644689	220	1	1.11	0.95	99.9211	0.4606	0.0000	0.0000;
	6	1	0	0	0	0	1	1.06492083	21.6413629	220	1	1.11	0.95	104.8874	0.8185	0.0000	0.0000;
	7	1	0	0	0	0	1	1.0650375	21.6508247	220	1	1.11	0.95	104.8788	0.8157	0.0000	0.0000;
	8	1	0	0	0	0	1	1.02549772	25.3828833	400	1	1.05	0.95	103.5478	0.3650	0.0000	0.0000;
	9	1	0	0	0	0	1	1.02550679	25.3877048	400	1	1.05	0.95	103.5446	0.3638	0.0000	0.0000;
	10	1	0	0	0	0	1	1.05819721	21.6225482	220	1	1.11	0.95	105.5999	1.0526	0.0000	0.0000;
	11	1	0	0	0	0	1	1.0581147	21.6167487	220	1	1.11	0.95	105.6024	1.0546	0.0000	0.0000;
	12	1	0	0	0	0	1	1.05806629	21.6216278	220	1	1.11	0.95	105.6012	1.0563	0.0000	0.0000;
	13	1	0	0	0	0	1	1.05803101	21.6119213	220	1	1.11	0.95	105.6027	1.0566	0.0000	0.0000;
	14	1	0	0	0	0	1	1.01814616	26.7561969	400	1	1.05	0.95	102.9401	0.6222	0.0000	0.0000;
	15	1	0	0	0	0	1	1.03141994	22.6598541	400	1	1.05	0.95	104.4637	0.0787	0.0000	0.0000;
	16	1	0	0	0	0	1	1.03141994	22.6598541	400	1	1.05	0.95	104.4637	0.0787	0.0000	0.0000;
	17	2	0	0	0	0	1	1.09271943	16.3157698	220	1	1.11	0.95	108.4757	0.0945	0.0000	0.0000;
	18	1	0	0	0	0	1	1.09277027	16.315883	220	1	1.11	0.95	108.4740	0.0938	0.0000	0.0000;
	19	1	0	0	0	0	1	1.09695149	33.6796056	220	1	1.11	0.95	99.3551	0.3508	0.0000	0.0000;
	20	1	0	0	0	0	1	1.09699222	33.682526	220	1	1.11	0.95	99.3548	0.3502	0.0000	0.0000;
	21	1	0	0	0	0	1	1.07735725	20.7980793	220	1	1.11	0.95	105.7430	0.6210	0.0000	0.0000;
	22	1	0	0	0	0	1	1.07735725	20.7980793	220	1	1.11	0.95	105.7430	0.6210	0.0000	0.0000;
	23	1	0	0	0	0	1	1.05585799	21.6135125	220	1	1.11	0.95	105.5975	1.0664	0.0000	0.0000;
	24	1	0	0	0	0	1	1.09816887	35.3783137	220	1	1.11	0.95	98.7808	0.2736	0.0000	0.0000;
	25	1	0	0	0	0	1	1.03136824	24.5964602	400	1	1.05	0.95	103.8023	0.4047	0.0000	0.0000;
	26	2	61.358	72.054	0	0	1	1.11	37.1806351	220	1	1.11	0.95	97.7431	-0.0000	1022.2138	0.0000;
	27	2	84.861	122.06	0	0	1	1.11	38.8630637	220	1	1.11	0.95	97.4065	-0.0000	1590.1083	0.0000;
	28	3	49	74	0	0	1	1.04603644	36.029099	400	1	1.05	0.95	98.5649	-0.0008	0.0000	0.0000;
	29	2	49	74	0	0	1	1.04604979	36.0351175	400	1	1.05	0.95	98.5617	-0.0000	0.0000	0.0000;
	30	1	0	0	0	0	1	1.06559465	21.3584541	220	1	1.11	0.95	105.6089	0.8714	0.0000	0.0000;
	31	1	0	0	0	0	1	1.04383103	34.6224106	400	1	1.05	0.95	98.8593	-0.0695	0.0000	0.0000;
	32	1	0	0	0	0	1	1.05532228	21.3048303	220	1	1.11	0.95	105.8146	1.1221	0.0000	0.0000;
	33	1	0	0	0	0	1	1.09932874	30.4197417	220	1	1.11	0.95	100.7030	0.2880	0.0000	0.0000;
	34	1	0	0	0	0	1	1.07661862	27.2137624	220	2	1.11	0.95	101.9123	-0.2924	0.0000	0.0000;
	35	1	0	0	0	0	1	1.0798708	27.6481601	220	2	1.11	0.95	102.0623	-0.6506	0.0000	0.0000;
	36	1	0	0	0	0	1	1.08764948	28.621946	220	2	1.11	0.95	101.3780	-0.8352	0.0000	0.0000;
	37	1	0	0	0	0	1	1.08763814	28.6200218	220	2	1.11	0.95	101.3790	-0.8351	0.0000	0.0000;
	38	1	0	0	0	0	1	1.06677002	25.9756459	220	2	1.11	0.95	102.7654	-0.4172	0.0000	0.0000;
	39	1	0	0	0	0	1	1.11	28.9686573	220	2	1.11	0.95	101.1085	-2.9773	17335.8853	0.0000;
	40	1	0	0	0	0	1	1.10988724	28.9691442	220	2	1.11	0.95	101.1100	-2.9656	0.0000	0.0000;
	41	1	0	0	0	0	1	1.02379908	29.1688779	400	2	1.05	0.95	101.1296	-2.0266	0.0000	0.0000;
	42	2	25	0	0	0	1	1.09098935	27.745083	220	2	1.11	0.95	101.8403	-0.1041	0.0000	0.0000;
	43	2	26	0	0	0	1	1.09089788	27.7637222	220	2	1.11	0.95	101.8344	-0.1049	0.0000	0.0000;
	44	2	25	0	0	0	1	1.0273068	28.1638061	400	2	1.05	0.95	102.0500	-0.0187	0.0000	0.0000;
	45	1	0	0	0	0	1	1.02726079	28.1611627	400	2	1.05	0.95	102.0498	-0.0184	0.0000	0.0000;
	46	1	0	0	0	0	1	1.106525	28.4742574	220	2	1.11	0.95	101.4527	-2.7736	0.0000	0.0000;
	47	1	0	0	0	0	1	1.03789915	25.8303878	400	2	1.05	0.95	102.2159	-0.8269	0.0000	0.0000;
	48	1	0	0	0	0	1	1.03786923	25.8245991	400	2	1.05	0.95	102.2186	-0.8260	0.0000	0.0000;
	49	1	0	0	0	0	1	1.03402432	27.6565671	400	2	1.05	0.95	102.0684	-0.1369	0.0000	0.0000;
	50	1	0	0	0	0	1	1.07438864	27.0337259	220	2	1.11	0.95	102.0757	-0.4662	0.0000	0.0000;
	51	1	0	0	0	0	1	1.07437117	27.0365336	220	2	1.11	0.95	102.0757	-0.4661	0.0000	0.0000;
	52	1	0	0	0	0	1	1.03806115	28.4085163	400	2	1.05	0.95	101.6708	-0.7412	0.0000	0.0000;
	53	1	0	0	0	0	1	1.03808188	28.4106989	400	2	1.05	0.95	101.6692	-0.7431	0.0000	0.0000;
	54	2	13	0	0	0	1	1.09248439	29.6390143	220	2	1.11	0.95	100.9151	-0.9764	0.0000	0.0000;
	55	2	13	0	0	0	1	1.09244621	29.6359102	220	2	1.11	0.95	100.9136	-0.9777	0.0000	0.0000;
	56	2	13	0	0	0	1	1.04483079	29.3444418	400	2	1.05	0.95	101.1620	-1.1248	0.0000	0.0000;
	57	2	26	0	0	0	1	1.04480335	29.3408301	400	2	1.05	0.95	101.1639	-1.1251	0.0000	0.0000;
	58	2	89.067	40	0	0	1	1.08485656	27.3293543	220	2	1.11	0.95	102.0280	-0.1952	0.0000	0.0000;
	59	1	0	0	0	0	1	1.08486762	27.330939	220	2	1.11	0.95	102.0267	-0.1957	0.0000	0.0000;
	60	1	0	0	0	0	1	1.10182049	28.4067695	220	2	1.11	0.95	101.4489	-2.3651	0.0000	0.0000;
	61	1	0	0	0	0	1	1.09244549	27.3144362	220	2	1.11	0.95	102.1677	-0.6546	0.0000	0.0000;
	62	1	0	0	0	0	1	1.09240898	27.3115496	220	2	1.11	0.95	102.1681	-0.6506	0.0000	0.0000;
	63	1	0	0	0	0	1	1.04851173	28.2619045	400	2	1.05	0.95	101.4010	-1.0667	0.0000	0.0000;
	64	1	0	0	0	0	1	1.04846273	28.2503337	400	2	1.05	0.95	101.4053	-1.0653	0.0000	0.0000;
	65	1	0	0	0	0	1	1.08105489	27.5430463	220	2	1.11	0.95	101.8610	-0.6276	0.0000	0.0000;
	66	1	0	0	0	0	1	1.08250902	27.7083271	220	2	1.11	0.95	101.7501	-0.6550	0.0000	0.0000;
	67	1	0	0	0	0	1	1.07497668	27.7528399	220	2	1.11	0.95	101.7245	-0.4387	0.0000	0.0000;
	68	1	0	0	0	0	1	1.10112893	32.6196402	220	3	1.11	0.95	99.7798	-0.3561	0.0000	0.0000;
	69	1	10.327	0	0	0	1	1.09617701	29.331151	220	3	1.11	0.95	101.2371	-0.5188	0.0000	0.0000;
	70	1	8.032	3.714	0	0	1	1.09602114	29.3380307	220	3	1.11	0.95	101.2345	-0.5150	0.0000	0.0000;
	71	1	0	0	0	0	1	1.0991944	32.3607016	220	3	1.11	0.95	99.5692	0.0928	0.0000	0.0000;
	72	1	0	0	0	0	1	1.09922607	32.3726892	220	3	1.11	0.95	99.5658	0.0915	0.0000	0.0000;
	73	1	0	0	0	0	1	1.09607306	32.1118728	220	3	1.11	0.95	99.6858	0.0188	0.0000	0.0000;
	74	1	0	0	0	0	1	1.0960527	32.1070565	220	3	1.11	0.95	99.6868	0.0189	0.0000	0.0000;
	75	1	0	0	0	0	1	1.09854116	30.8029972	220	3	1.11	0.95	100.6562	0.1743	0.0000	0.0000;
	76	1	0	0	0	0	1	1.0984288	30.7959762	220	3	1.11	0.95	100.6605	0.1766	0.0000	0.0000;
	77	2	27	70	0	0	1	1.10209581	33.1829252	220	3	1.11	0.95	99.1927	0.0000	0.0000	0.0000;
	78	2	18.7	42	0	0	1	1.10066074	33.224862	220	3	1.11	0.95	99.2607	-0.0000	0.0000	0.0000;
	79	1	4.934	0.817	0	0	1	1.09210382	31.9011393	220	3	1.11	0.95	100.0566	0.2163	0.0000	0.0000;
	80	1	0	0	0	0	1	1.09212213	31.9021996	220	3	1.11	0.95	100.0558	0.2161	0.0000	0.0000;
	81	2	18	57	0	0	1	1.03261369	32.3004427	400	3	1.05	0.95	99.4357	-0.0542	0.0000	0.0000;
	82	1	0	0	0	0	1	1.08860155	31.308387	220	3	1.11	0.95	99.9555	-0.5983	0.0000	0.0000;
	83	1	0	0	0	0	1	1.09823079	31.6150886	220	3	1.11	0.95	100.0538	0.0218	0.0000	0.0000;
	84	1	0	0	0	0	1	1.09823253	31.6200985	220	3	1.11	0.95	100.0519	0.0217	0.0000	0.0000;
	85	1	44.864	-6.4	0	0	1	1.10205326	32.6063342	220	3	1.11	0.95	99.7026	-0.3872	0.0000	0.0000;
	86	1	0	0	0	0	1	1.10202909	32.6011208	220	3	1.11	0.95	99.7048	-0.3867	0.0000	0.0000;
	87	1	0	0	0	0	1	1.09241587	31.9156486	220	3	1.11	0.95	99.8562	0.1016	0.0000	0.0000;
	88	1	0	0	0	0	1	1.09240354	31.9212435	220	3	1.11	0.95	99.8545	0.1023	0.0000	0.0000;
	89	1	0	0	0	0	1	1.10331239	33.0602898	220	3	1.11	0.95	99.4710	-0.4008	0.0000	0.0000;
	90	1	0	0	0	0	1	1.10330918	33.055852	220	3	1.11	0.95	99.4732	-0.4029	0.0000	0.0000;
	91	1	0	0	0	0	1	1.04752367	34.2249192	400	3	1.05	0.95	99.1804	-0.2499	0.0000	0.0000;
	92	1	0	0	0	0	1	1.0475187	34.2232094	400	3	1.05	0.95	99.1807	-0.2499	0.0000	0.0000;
	93	1	0	0	0	0	1	1.09372835	31.5105901	220	3	1.11	0.95	100.0389	0.0638	0.0000	0.0000;
	94	1	0	0	0	0	1	1.09375181	31.5060122	220	3	1.11	0.95	100.0405	0.0641	0.0000	0.0000;
	95	1	0	0	0	0	1	1.09302743	31.7571149	220	3	1.11	0.95	99.9944	-0.1770	0.0000	0.0000;
	96	1	0	0	0	0	1	1.09301433	31.7548264	220	3	1.11	0.95	99.9941	-0.1793	0.0000	0.0000;
	97	2	12.49	3.696	0	0	1	1.09921935	32.473152	220	3	1.11	0.95	99.6305	-0.2325	0.0000	0.0000;
	98	1	17.327	6.126	0	0	1	1.09921452	32.466524	220	3	1.11	0.95	99.6329	-0.2345	0.0000	0.0000;
	99	1	0	0	0	0	1	1.09622455	29.35548	220	3	1.11	0.95	101.2242	-0.5192	0.0000	0.0000;
	100	1	0	0	0	0	1	1.09623171	29.355323	220	3	1.11	0.95	101.2239	-0.5182	0.0000	0.0000;
	101	1	0	0	0	0	1	1.09186146	30.429858	220	3	1.11	0.95	100.9555	0.3390	0.0000	0.0000;
	102	1	0	0	0	0	1	1.09183001	30.4301523	220	3	1.11	0.95	100.9548	0.3396	0.0000	0.0000;
	103	2	14	40	0	0	1	1.09977438	31.5949278	220	3	1.11	0.95	100.0820	0.0000	0.0000	0.0000;
	104	2	0	0	0	0	1	1.09972138	31.567817	220	3	1.11	0.95	100.0912	0.0013	0.0000	0.0000;
	105	2	7	18	0	0	1	1.09544136	31.9916837	220	3	1.11	0.95	99.7821	0.0000	0.0000	0.0000;
	106	2	0	0	0	0	1	1.09538883	31.9890488	220	3	1.11	0.95	99.7842	0.0001	0.0000	0.0000;
	107	1	0	13.892	0	0	1	1.09956527	31.9115994	220	3	1.11	0.95	99.8935	-0.4872	0.0000	0.0000;
	108	1	73.779	8.097	0	0	1	1.09957967	31.9020065	220	3	1.11	0.95	99.8960	-0.4905	0.0000	0.0000;
	109	1	0	0	0	0	1	1.09386347	31.1662531	220	3	1.11	0.95	100.5969	0.0349	0.0000	0.0000;
	110	1	0	0	0	0	1	1.0872649	31.8124174	220	3	1.11	0.95	100.2136	0.3412	0.0000	0.0000;
	111	1	0	0	0	0	1	1.08729511	31.8129227	220	3	1.11	0.95	100.2130	0.3407	0.0000	0.0000;
	112	1	0	0	0	0	1	1.09328092	31.9756277	220	3	1.11	0.95	99.9889	0.1987	0.0000	0.0000;
	113	1	0	0	0	0	1	1.09333805	31.9847261	220	3	1.11	0.95	99.9850	0.1976	0.0000	0.0000;
	114	1	0	0	0	0	1	1.04151964	31.3427458	400	3	1.05	0.95	100.0076	-0.6874	0.0000	0.0000;
	115	2	0	0	0	0	1	1.10000509	32.8601169	220	3	1.11	0.95	99.3702	-0.0456	0.0000	0.0000;
	116	2	8	15	0	0	1	1.10001801	32.8624879	220	3	1.11	0.95	99.3710	-0.0462	0.0000	0.0000;
	117	2	5.5	10	0	0	1	1.09839607	31.9775517	220	3	1.11	0.95	100.0291	-0.0472	0.0000	0.0000;
	118	1	0	0	0	0	1	1.0984173	31.9686179	220	3	1.11	0.95	100.0311	-0.0481	0.0000	0.0000;
	119	1	0	0	0	0	1	1.04963472	29.0860245	400	3	1.05	0.95	101.1412	-1.1076	0.0000	0.0000;
	120	1	0	0	0	0	1	1.04966859	29.0908354	400	3	1.05	0.95	101.1390	-1.1086	0.0000	0.0000;
	121	1	0	0	0	0	1	1.04997993	31.4937916	400	3	1.05	0.95	99.9447	-1.1864	0.0000	0.0000;
	122	1	0	0	0	0	1	1.05	31.4989088	400	3	1.05	0.95	99.9429	-1.1894	9407.5787	0.0000;
	123	1	0	0	0	0	1	1.09317076	31.0999823	220	3	1.11	0.95	100.7154	0.0469	0.0000	0.0000;
	124	2	11	17.5	0	0	1	1.09953465	33.0512478	220	3	1.11	0.95	99.3570	-0.0040	0.0000	0.0000;
	125	2	41.353	61.2	0	0	1	1.09943355	33.0686564	220	3	1.11	0.95	99.3514	-0.0000	0.0000	0.0000;
	126	2	14	33	0	0	1	1.0364555	31.7562665	400	3	1.05	0.95	99.7677	-0.3087	0.0000	0.0000;
	127	1	0	0	0	0	1	1.03644314	31.7567204	400	3	1.05	0.95	99.7677	-0.3096	0.0000	0.0000;
	128	1	0	0	0	0	1	1.10145549	32.4981821	220	3	1.11	0.95	99.7618	-0.3746	0.0000	0.0000;
	129	1	0	0	0	0	1	1.10142672	32.5003675	220	3	1.11	0.95	99.7601	-0.3741	0.0000	0.0000;
	130	1	0	0	0	0	1	1.10194023	32.7238592	220	3	1.11	0.95	99.6430	-0.3660	0.0000	0.0000;
	131	2	1.5	9	0	0	1	1.10125958	31.155311	220	3	1.11	0.95	100.4805	0.1306	0.0000	0.0000;
	132	2	0	0	0	0	1	1.09846138	30.7957462	220	3	1.11	0.95	100.6605	0.1758	0.0000	0.0000;
	133	2	11.215	8.3	0	0	1	1.11	29.3547804	220	4	1.11	0.95	100.9845	-0.0000	523.5776	0.0000;
	134	2	10.333	7.7	0	0	1	1.11	29.3517762	220	4	1.11	0.95	100.9853	-0.0000	480.7517	0.0000;
	135	1	0	0	0	0	1	1.0810758	25.2738535	220	4	1.11	0.95	101.0283	-2.1188	0.0000	0.0000;
	136	1	0	0	0	0	1	1.08285548	26.133983	220	4	1.11	0.95	100.9228	-1.3799	0.0000	0.0000;
	137	1	0	0	0	0	1	1.00653407	25.8734277	400	4	1.05	0.95	102.0367	0.0160	0.0000	0.0000;
	138	1	0	0	0	0	1	1.00655195	25.8732926	400	4	1.05	0.95	102.0376	0.0160	0.0000	0.0000;
	139	1	0	0	0	0	1	1.09395822	18.5756053	220	4	1.11	0.95	108.3174	0.4747	0.0000	0.0000;
	140	1	0	0	0	0	1	1.1000551	14.20927	220	4	1.11	0.95	110.8244	0.1793	0.0000	0.0000;
	141	1	0	0	0	0	1	1.1000551	14.20927	220	4	1.11	0.95	110.8244	0.1793	0.0000	0.0000;
	142	1	0	0	0	0	1	1.09952918	16.205232	220	4	1.11	0.95	109.1038	0.2673	0.0000	0.0000;
	143	1	0	0	0	0	1	1.07750183	23.9577641	220	4	1.11	0.95	101.7257	-1.2279	0.0000	0.0000;
	144	1	0	0	0	0	1	1.07750183	23.9577641	220	4	1.11	0.95	101.7257	-1.2279	0.0000	0.0000;
	145	2	0	0	0	0	1	1.10873675	26.0007253	220	4	1.11	0.95	102.7077	0.0288	0.0000	0.0000;
	146	2	0	0	0	0	1	1.10871323	26.0001221	220	4	1.11	0.95	102.7042	0.0299	0.0000	0.0000;
	147	2	25.553	12.9	0	0	1	1.11	16.521018	220	4	1.11	0.95	109.1470	0.0000	418.1168	0.0000;
	148	1	0	0	0	0	1	1.10993561	16.5254359	220	4	1.11	0.95	109.1454	0.0016	0.0000	0.0000;
	149	2	11	12	0	0	1	1.03988871	17.7390392	400	4	1.05	0.95	108.8462	-0.0942	0.0000	0.0000;
	150	2	11.922	13.7	0	0	1	1.03987547	17.740301	400	4	1.05	0.95	108.8461	-0.0935	0.0000	0.0000;
	151	1	0	0	0	0	1	1.0685511	18.2212977	220	4	1.11	0.95	109.0919	1.1208	0.0000	0.0000;
	152	1	0	0	0	0	1	1.09686527	20.503201	220	4	1.11	0.95	106.0499	0.2668	0.0000	0.0000;
	153	1	0	0	0	0	1	1.09681731	20.4987548	220	4	1.11	0.95	106.0507	0.2679	0.0000	0.0000;
	154	2	19.475	64.3	0	0	1	1.08653308	28.3208213	220	4	1.11	0.95	100.3394	-0.0769	0.0000	0.0000;
	155	2	16	33	0	0	1	1.08656701	28.3123715	220	4	1.11	0.95	100.3455	-0.0731	0.0000	0.0000;
	156	1	0	0	0	0	1	1.00448552	27.8554135	400	4	1.05	0.95	100.6484	-0.0001	0.0000	0.0000;
	157	2	10	25	0	0	1	1.00447981	27.8612164	400	4	1.05	0.95	100.6457	-0.0000	0.0000	0.0000;
	158	1	0	0	0	0	1	1.09905724	14.2457089	220	4	1.11	0.95	110.7235	0.1735	0.0000	0.0000;
	159	1	0	0	0	0	1	1.09905724	14.2457089	220	4	1.11	0.95	110.7235	0.1735	0.0000	0.0000;
	160	1	0	0	0	0	1	1.01232794	25.8064186	400	4	1.05	0.95	101.9477	-0.0109	0.0000	0.0000;
	161	1	0	0	0	0	1	1.01528158	26.9372347	400	4	1.05	0.95	101.4889	-0.0393	0.0000	0.0000;
	162	1	0	0	0	0	1	1.01526408	26.933332	400	4	1.05	0.95	101.4908	-0.0394	0.0000	0.0000;
	163	2	5.54	2.93	0	0	1	1.11	25.8517159	220	4	1.11	0.95	102.7593	0.0000	453.4490	0.0000;
	164	2	18.255	11.5	0	0	1	1.11	25.8438146	220	4	1.11	0.95	102.7665	0.0000	711.4804	0.0000;
	165	1	0	0	0	0	1	1.11	25.8438146	220	4	1.11	0.95	102.7664	-0.0013	711.4804	0.0000;
	166	1	0	0	0	0	1	1.08890186	14.2939466	220	4	1.11	0.95	111.1796	0.2060	0.0000	0.0000;
	167	1	0	0	0	0	1	1.09920497	14.0794897	220	4	1.11	0.95	110.8879	0.1892	0.0000	0.0000;
	168	1	0	0	0	0	1	1.09204375	17.3517471	220	4	1.11	0.95	109.2083	0.3701	0.0000	0.0000;
	169	1	0	0	0	0	1	1.09202377	17.3437383	220	4	1.11	0.95	109.2110	0.3697	0.0000	0.0000;
	170	1	0	0	0	0	1	1.02696574	16.8047723	400	4	1.05	0.95	109.3867	0.4082	0.0000	0.0000;
	171	1	0	0	0	0	1	1.02696574	16.8047723	400	4	1.05	0.95	109.3867	0.4082	0.0000	0.0000;
	172	1	0	0	0	0	1	1.06735448	20.8941579	220	4	1.11	0.95	106.5302	0.9101	0.0000	0.0000;
	173	1	0	0	0	0	1	1.06733955	20.9004733	220	4	1.11	0.95	106.5281	0.9107	0.0000	0.0000;
	174	1	0	0	0	0	1	1.09003117	20.8421311	220	4	1.11	0.95	105.2994	0.6344	0.0000	0.0000;
	175	1	0	0	0	0	1	1.08025649	25.5219386	220	4	1.11	0.95	101.0240	-1.9903	0.0000	0.0000;
	176	1	0	0	0	0	1	1.08026227	25.5308282	220	4	1.11	0.95	101.0208	-1.9947	0.0000	0.0000;
	177	1	0	0	0	0	1	1.08187469	26.7745332	220	4	1.11	0.95	100.5932	-2.1262	0.0000	0.0000;
	178	1	0	0	0	0	1	1.08187469	26.7745332	220	4	1.11	0.95	100.5932	-2.1262	0.0000	0.0000;
	179	2	3.13	1.5	0	0	1	1.11	21.7420012	220	4	1.11	0.95	105.3894	0.0000	138.3298	0.0000;
	180	1	0	0	0	0	1	1.06692973	19.9394875	220	4	1.11	0.95	106.9743	0.8788	0.0000	0.0000;
	181	1	0	0	0	0	1	1.07352276	18.844242	220	5	1.11	0.95	106.9351	0.1983	0.0000	0.0000;
	182	1	0	0	0	0	1	1.09084401	15.9562333	220	5	1.11	0.95	109.0236	-0.4286	0.0000	0.0000;
	183	1	0	0	0	0	1	1.03786754	17.0222801	400	5	1.05	0.95	108.6608	-0.4285	0.0000	0.0000;
	184	1	0	0	0	0	1	1.03788968	17.0207421	400	5	1.05	0.95	108.6624	-0.4287	0.0000	0.0000;
	185	1	0	0	0	0	1	1.0322528	18.6111854	400	5	1.05	0.95	107.5433	0.1565	0.0000	0.0000;
	186	1	0	0	0	0	1	1.03227107	18.608443	400	5	1.05	0.95	107.5456	0.1563	0.0000	0.0000;
	187	1	0	0	0	0	1	1.07920695	15.1258337	220	5	1.11	0.95	109.3333	0.2640	0.0000	0.0000;
	188	1	0	0	0	0	1	1.0792408	15.1238475	220	5	1.11	0.95	109.3343	0.2629	0.0000	0.0000;
	189	1	0	0	0	0	1	1.07575801	19.2146642	220	5	1.11	0.95	106.8884	0.3795	0.0000	0.0000;
	190	1	0	0	0	0	1	1.07572087	19.2069201	220	5	1.11	0.95	106.8912	0.3790	0.0000	0.0000;
	191	1	0	0	0	0	1	1.01716163	19.3116099	400	5	1.05	0.95	106.5567	0.4546	0.0000	0.0000;
	192	1	0	0	0	0	1	1.07738792	19.5212873	220	5	1.11	0.95	106.7089	0.2220	0.0000	0.0000;
	193	1	0	0	0	0	1	1.07736637	19.5273073	220	5	1.11	0.95	106.7072	0.2227	0.0000	0.0000;
	194	1	0	0	0	0	1	1.03287663	17.0381045	400	5	1.05	0.95	108.4589	0.2792	0.0000	0.0000;
	195	1	0	0	0	0	1	1.03285702	17.0342181	400	5	1.05	0.95	108.4614	0.2798	0.0000	0.0000;
	196	1	0	0	0	0	1	1.07395069	14.6779298	220	5	1.11	0.95	109.8126	0.5218	0.0000	0.0000;
	197	1	0	0	0	0	1	1.07396883	14.6768887	220	5	1.11	0.95	109.8123	0.5215	0.0000	0.0000;
	198	1	0	0	0	-117	1	1.02955086	17.9588291	400	5	1.05	0.95	107.9700	-0.3448	0.0000	0.0000;
	199	1	0	0	0	0	1	1.02959662	17.9549095	400	5	1.05	0.95	107.9730	-0.3455	0.0000	0.0000;
	200	1	0	0	0	0	1	1.06879021	18.1046164	220	5	1.11	0.95	107.6699	0.5568	0.0000	0.0000;
...
];

%% generator data
%	bus	Pg	Qg	Qmax	Qmin	Vg	mBase	status	Pmax	Pmin	Pc1	Pc2	Qc1min	Qc1max	Qc2min	Qc2max	ramp_agc	ramp_10	ramp_30	ramp_q	apf	mu_Pmax	mu_Pmin	mu_Qmax	mu_Qmin
mpc.gen = [
	17	0	0	120	-22	1.07106	241.9	0	210	140	0	0	0	0	0	0	0	0	0	0	0	0.0000	0.0000	0.0000	0.0000;
	17	0	0	120	-22	1.07106	233.2	0	200	140	0	0	0	0	0	0	0	0	0	0	0	0.0000	0.0000	0.0000	0.0000;
	26	370	63.3479792	190	-19	1.11	415.9	1	370	290	0	0	0	0	0	0	0	0	0	0	0	21.6431	0.0000	0.0000	0.0000;
	27	360	46.2072022	190	-19	1.11	407.1	1	360	290	0	0	0	0	0	0	0	0	0	0	0	21.3065	0.0000	0.0000	0.0000;
	27	360	46.2072022	190	-19	1.11	407.1	1	360	290	0	0	0	0	0	0	0	0	0	0	0	21.3065	0.0000	0.0000	0.0000;
	27	370	46.2072022	190	-19	1.11	415.9	1	370	290	0	0	0	0	0	0	0	0	0	0	0	21.3065	0.0000	0.0000	0.0000;
	26	370	63.3479792	190	-19	1.11	415.9	1	370	290	0	0	0	0	0	0	0	0	0	0	0	21.6431	0.0000	0.0000	0.0000;
	28	370	-18.9992552	190	-19	1.04603644	415.9	1	370	290	0	0	0	0	0	0	0	0	0	0	0	22.4649	0.0000	0.0000	0.0000;
	28	0	0	190	-19	1.02665	415.9	0	370	290	0	0	0	0	0	0	0	0	0	0	0	0.0000	0.0000	0.0000	0.0000;
	28	370	-18.9992552	190	-19	1.04603644	415.9	1	370	290	0	0	0	0	0	0	0	0	0	0	0	22.4649	0.0000	0.0000	0.0000;
	29	0	0	190	-19	1.02665	415.9	0	370	290	0	0	0	0	0	0	0	0	0	0	0	0.0000	0.0000	0.0000	0.0000;
	29	370	-4.04222317	190	-19	1.04604979	415.9	1	370	290	0	0	0	0	0	0	0	0	0	0	0	22.4617	0.0000	0.0000	0.0000;
	29	370	-4.04222317	190	-19	1.04604979	415.9	1	370	290	0	0	0	0	0	0	0	0	0	0	0	22.4617	0.0000	0.0000	0.0000;
	42	130.000003	-33.9999946	135	-34	1.09098935	253.9	1	215	130	0	0	0	0	0	0	0	0	0	0	0	0.0000	0.2097	0.0000	0.1041;
	42	0	0	130	-34	1.09091	242.7	0	205	135	0	0	0	0	0	0	0	0	0	0	0	0.0000	0.0000	0.0000	0.0000;
	42	110.000003	-33.9999946	145	-34	1.09098935	267.7	1	225	110	0	0	0	0	0	0	0	0	0	0	0	0.0000	0.2097	0.0000	0.1041;
	43	120.000003	-33.9999947	145	-34	1.09089788	267.7	1	225	120	0	0	0	0	0	0	0	0	0	0	0	0.0000	0.2156	0.0000	0.1049;
	43	130.000003	-33.9999947	145	-34	1.09089788	267.7	1	225	130	0	0	0	0	0	0	0	0	0	0	0	0.0000	0.2156	0.0000	0.1049;
	43	0	0	130	-34	1.09091	242.7	0	205	135	0	0	0	0	0	0	0	0	0	0	0	0.0000	0.0000	0.0000	0.0000;
	44	420.87186	-46.9999715	363	-47	1.0273068	646.5	1	535	255	0	0	0	0	0	0	0	0	0	0	0	0.0000	0.0000	0.0000	0.0187;
	44	0	0	348	-100	1.01857	659.3	0	560	250	0	0	0	0	0	0	0	0	0	0	0	0.0000	0.0000	0.0000	0.0000;
	54	129	-0.999999423	104	-1	1.09248439	247.9	1	225	129	0	0	0	0	0	0	0	0	0	0	0	0.0000	4.4349	0.0000	0.9764;
	55	129	-15.9999994	130	-16	1.09244621	259.9	1	225	129	0	0	0	0	0	0	0	0	0	0	0	0.0000	4.4364	0.0000	0.9777;
	54	0	0	130	-16	1.09116	259.9	0	225	129	0	0	0	0	0	0	0	0	0	0	0	0.0000	0.0000	0.0000	0.0000;
	56	129	-15.9999995	130	-16	1.04483079	259.9	1	225	129	0	0	0	0	0	0	0	0	0	0	0	0.0000	4.1880	0.0000	1.1248;
	57	129	-15.9999995	130	-16	1.04480335	259.9	1	225	129	0	0	0	0	0	0	0	0	0	0	0	0.0000	4.1861	0.0000	1.1251;
	57	0	0	104	-1	1.04036	247.9	0	225	129	0	0	0	0	0	0	0	0	0	0	0	0.0000	0.0000	0.0000	0.0000;
	57	129	-15.9999995	130	-16	1.04480335	259.9	1	225	129	0	0	0	0	0	0	0	0	0	0	0	0.0000	4.1861	0.0000	1.1251;
	58	48.1	2.87434553e-06	30	0	1.08485656	66.5	1	48.1	48.1	0	0	0	0	0	0	0	0	0	0	0	102.0280	0.0000	0.0000	0.1952;
	77	225	57.1332204	123	-15	1.10209581	256.4	1	225	140	0	0	0	0	0	0	0	0	0	0	0	3.8827	0.0000	0.0000	0.0000;
	77	225	57.1332204	123	-15	1.10209581	256.4	1	225	140	0	0	0	0	0	0	0	0	0	0	0	3.8827	0.0000	0.0000	0.0000;
	78	0	0	123	-15	1.09091	252	0	220	140	0	0	0	0	0	0	0	0	0	0	0	0.0000	0.0000	0.0000	0.0000;
	78	225	1.3922099	123	-15	1.10066074	256.4	1	225	140	0	0	0	0	0	0	0	0	0	0	0	3.9507	0.0000	0.0000	0.0000;
	78	225	1.3922099	123	-15	1.10066074	256.4	1	225	140	0	0	0	0	0	0	0	0	0	0	0	3.9507	0.0000	0.0000	0.0000;
	81	380	-30.9999895	232	-31	1.03261369	445.2	1	380	220	0	0	0	0	0	0	0	0	0	0	0	9.4057	0.0000	0.0000	0.0542;
	81	0	0	228	-30	1.02168	434.6	0	370	220	0	0	0	0	0	0	0	0	0	0	0	0.0000	0.0000	0.0000	0.0000;
	97	9	2.42325648e-06	1	0	1.09921935	12	1	9	9	0	0	0	0	0	0	0	0	0	0	0	99.6305	0.0000	0.0000	0.2325;
	97	6	2.42325648e-06	1	0	1.09921935	6.1	1	6	6	0	0	0	0	0	0	0	0	0	0	0	99.6305	0.0000	0.0000	0.2325;
	103	225	110.942917	123	-15	1.09977438	256.4	1	225	134	0	0	0	0	0	0	0	0	0	0	0	7.3020	0.0000	0.0000	0.0000;
	104	0	0	123	-15	1.08898	256.4	0	225	134	0	0	0	0	0	0	0	0	0	0	0	0.0000	0.0000	0.0000	0.0000;
	105	120	45.1910317	80	-2	1.09544136	144.2	1	120	79	0	0	0	0	0	0	0	0	0	0	0	5.6921	0.0000	0.0000	0.0000;
	106	0	0	80	-2	1.0874	144.2	0	120	79	0	0	0	0	0	0	0	0	0	0	0	0.0000	0.0000	0.0000	0.0000;
	115	0	0	90	-20	1.08993	150	0	120	90	0	0	0	0	0	0	0	0	0	0	0	0.0000	0.0000	0.0000	0.0000;
	116	120	-1.99998781	82	-2	1.10001801	145.3	1	120	70	0	0	0	0	0	0	0	0	0	0	0	2.2510	0.0000	0.0000	0.0462;
	117	109.999999	1.19313045e-05	40	0	1.09839607	117	1	110	80	0	0	0	0	0	0	0	0	0	0	0	0.5091	0.0000	0.0000	0.0472;
	124	215	-34.9998582	135	-35	1.09953465	253.9	1	215	160	0	0	0	0	0	0	0	0	0	0	0	8.1970	0.0000	0.0000	0.0040;
	125	225	20.4943454	140	-35	1.09943355	265	1	225	140	0	0	0	0	0	0	0	0	0	0	0	8.1914	0.0000	0.0000	0.0000;
	125	215	19.6371511	135	-35	1.09943355	253.9	1	215	160	0	0	0	0	0	0	0	0	0	0	0	8.1914	0.0000	0.0000	0.0000;
	126	225	-39.9999982	140	-40	1.0364555	265	1	225	140	0	0	0	0	0	0	0	0	0	0	0	8.6077	0.0000	0.0000	0.3087;
	126	0	0	137	-40	1.02511	259.2	0	220	160	0	0	0	0	0	0	0	0	0	0	0	0.0000	0.0000	0.0000	0.0000;
	131	125	39.9999957	40	-38	1.10125958	131.2	1	125	0	0	0	0	0	0	0	0	0	0	0	0	100.4705	0.0000	0.1306	0.0000;
	131	0	0	40	-38	1.08591	131.2	0	125	0	0	0	0	0	0	0	0	0	0	0	0	0.0000	0.0000	0.0000	0.0000;
	132	0	0	40	-38	1.08371	131.2	0	125	0	0	0	0	0	0	0	0	0	0	0	0	0.0000	0.0000	0.0000	0.0000;
	132	0	0	40	-38	1.08371	131.2	0	125	0	0	0	0	0	0	0	0	0	0	0	0	0.0000	0.0000	0.0000	0.0000;
	133	0	0	90	0	1.09091	150	0	120	100	0	0	0	0	0	0	0	0	0	0	0	0.0000	0.0000	0.0000	0.0000;
	133	120	11.7284206	90	0	1.11	150	1	120	100	0	0	0	0	0	0	0	0	0	0	0	8.5545	0.0000	0.0000	0.0000;
	134	120	36.5787579	90	0	1.11	150	1	120	100	0	0	0	0	0	0	0	0	0	0	0	8.5553	0.0000	0.0000	0.0000;
	145	0	0	12	0	1.08954	51.4	0	50	30	0	0	0	0	0	0	0	0	0	0	0	0.0000	0.0000	0.0000	0.0000;
	145	0	0	12	0	1.08954	51.4	0	50	30	0	0	0	0	0	0	0	0	0	0	0	0.0000	0.0000	0.0000	0.0000;
	146	0	0	90	0	1.08953	150	0	120	90	0	0	0	0	0	0	0	0	0	0	0	0.0000	0.0000	0.0000	0.0000;
	147	0	0	149	-48	1.08582	267.4	0	222	90	0	0	0	0	0	0	0	0	0	0	0	0.0000	0.0000	0.0000	0.0000;
	147	0	0	149	-48	1.08582	253.4	0	205	135	0	0	0	0	0	0	0	0	0	0	0	0.0000	0.0000	0.0000	0.0000;
	147	0	0	149	-48	1.08582	253.4	0	205	135	0	0	0	0	0	0	0	0	0	0	0	0.0000	0.0000	0.0000	0.0000;
	147	90.0000001	95.5745344	149	-48	1.11	267.4	1	222	90	0	0	0	0	0	0	0	0	0	0	0	0.0000	6.8630	0.0000	0.0000;
	149	90.0000001	-22.999994	123	-23	1.03988871	253.8	1	222	90	0	0	0	0	0	0	0	0	0	0	0	0.0000	7.1638	0.0000	0.0942;
	150	90.0000001	-47.9999939	149	-48	1.03987547	267.4	1	222	90	0	0	0	0	0	0	0	0	0	0	0	0.0000	7.1639	0.0000	0.0935;
	150	0	0	123	-23	1.025	253.8	0	222	90	0	0	0	0	0	0	0	0	0	0	0	0.0000	0.0000	0.0000	0.0000;
	154	235	-52.9999927	149	-53	1.08653308	278.3	1	235	94	0	0	0	0	0	0	0	0	0	0	0	1.4994	0.0000	0.0000	0.0769;
	154	0	0	149	-53	1.09091	278.3	0	235	94	0	0	0	0	0	0	0	0	0	0	0	0.0000	0.0000	0.0000	0.0000;
	154	261	7.32102768e-06	120	0	1.08653308	287.3	1	261	104	0	0	0	0	0	0	0	0	0	0	0	1.4994	0.0000	0.0000	0.0769;
	154	0	0	132	-40	1.09091	292.5	0	261	104	0	0	0	0	0	0	0	0	0	0	0	0.0000	0.0000	0.0000	0.0000;
	155	0	0	120	0	1.09091	287.3	0	261	104	0	0	0	0	0	0	0	0	0	0	0	0.0000	0.0000	0.0000	0.0000;
	155	205	-21.9999923	117	-22	1.08656701	236	1	205	130	0	0	0	0	0	0	0	0	0	0	0	1.5055	0.0000	0.0000	0.0731;
	155	206	-19.9999923	109	-20	1.08656701	233.1	1	206	120	0	0	0	0	0	0	0	0	0	0	0	1.5055	0.0000	0.0000	0.0731;
	155	0	0	109	-20	1.09091	233.1	0	206	120	0	0	0	0	0	0	0	0	0	0	0	0.0000	0.0000	0.0000	0.0000;
	157	206	29.6935706	109	-20	1.00447981	233.1	1	206	120	0	0	0	0	0	0	0	0	0	0	0	1.8057	0.0000	0.0000	0.0000;
	163	0	0	104	-23	1.09091	225.4	0	200	150	0	0	0	0	0	0	0	0	0	0	0	0.0000	0.0000	0.0000	0.0000;
	163	200	76.6265898	104	-23	1.11	225.4	1	200	150	0	0	0	0	0	0	0	0	0	0	0	13.5393	0.0000	0.0000	0.0000;
	164	200	59.8731656	104	-23	1.11	225.4	1	200	150	0	0	0	0	0	0	0	0	0	0	0	13.5465	0.0000	0.0000	0.0000;
	164	200	59.8731656	104	-23	1.11	225.4	1	200	150	0	0	0	0	0	0	0	0	0	0	0	13.5465	0.0000	0.0000	0.0000;
	179	170	66.5025204	110	0	1.11	219.5	1	170	170	0	0	0	0	0	0	0	0	0	0	0	105.3894	0.0000	0.0000	0.0000;
	204	179	-17.8603235	110	-60	1.03465855	210.1	1	179	0	0	0	0	0	0	0	0	0	0	0	0	107.0644	0.0000	0.0000	0.0000;
	204	179	-17.8603235	110	-60	1.03465855	210.1	1	179	0	0	0	0	0	0	0	0	0	0	0	0	107.0644	0.0000	0.0000	0.0000;
	204	179	-17.8603235	110	-60	1.03465855	210.1	1	179	0	0	0	0	0	0	0	0	0	0	0	0	107.0644	0.0000	0.0000	0.0000;
	205	179	33.8202236	110	-60	1.03469127	210.1	1	179	0	0	0	0	0	0	0	0	0	0	0	0	107.0643	0.0000	0.0000	0.0000;
	214	35	6.02604059	20	0	1.11196882	58.5	1	35	35	0	0	0	0	0	0	0	0	0	0	0	106.3453	0.0000	0.0000	0.0000;
	214	0	0	20	0	1.09209	53.9	0	0	0	0	0	0	0	0	0	0	0	0	0	0	0.0000	0.0000	0.0000	0.0000;
	214	0	0	20	0	1.09209	53.9	0	0	0	0	0	0	0	0	0	0	0	0	0	0	0.0000	0.0000	0.0000	0.0000;
	214	10	6.02604059	20	0	1.11196882	30.5	1	10	10	0	0	0	0	0	0	0	0	0	0	0	106.3453	0.0000	0.0000	0.0000;
	220	1.55	0.347547761	1	0	1.09898981	2.3	1	1.55	1.55	0	0	0	0	0	0	0	0	0	0	0	102.9733	0.0000	0.0000	0.0000;
	221	1.55	0.999995235	1	0	1.09435172	2.3	1	1.55	1.55	0	0	0	0	0	0	0	0	0	0	0	102.1202	0.0000	0.1181	0.0000;
	239	7	5.99999948	6	0	1.08361489	9.8	1	7	7	0	0	0	0	0	0	0	0	0	0	0	108.7593	0.0000	1.0875	0.0000;
	246	370	62.2128811	190	-19	1.07903253	415.9	1	370	290	0	0	0	0	0	0	0	0	0	0	0	21.7645	0.0000	0.0000	0.0000;
	309	0	0	7	0	1.08081	27.9	0	0	0	0	0	0	0	0	0	0	0	0	0	0	0.0000	0.0000	0.0000	0.0000;
	309	0	0	7	0	1.08081	27.9	0	0	0	0	0	0	0	0	0	0	0	0	0	0	0.0000	0.0000	0.0000	0.0000;
	309	11	6.99999875	7	4	1.1094531	30.8	1	11	11	0	0	0	0	0	0	0	0	0	0	0	100.4783	0.0000	0.4513	0.0000;
	309	0	0	7	0	1.08081	27.9	0	0	0	0	0	0	0	0	0	0	0	0	0	0	0.0000	0.0000	0.0000	0.0000;
	309	0	0	6	0	1.08081	27.7	0	0	0	0	0	0	0	0	0	0	0	0	0	0	0.0000	0.0000	0.0000	0.0000;
	309	0	0	7	0	1.08081	27.9	0	0	0	0	0	0	0	0	0	0	0	0	0	0	0.0000	0.0000	0.0000	0.0000;
	309	0	0	7	0	1.08081	27.9	0	0	0	0	0	0	0	0	0	0	0	0	0	0	0.0000	0.0000	0.0000	0.0000;
	310	15	14.999998	15	0	1.1120919	36.7	1	15	15	0	0	0	0	0	0	0	0	0	0	0	100.8668	0.0000	0.2807	0.0000;
	310	0	0	15	0	1.08142	57	0	0	0	0	0	0	0	0	0	0	0	0	0	0	0.0000	0.0000	0.0000	0.0000;
	311	15	14.9999991	15	0	1.09717451	36.7	1	15	15	0	0	0	0	0	0	0	0	0	0	0	102.1215	0.0000	0.6620	0.0000;
	311	0	0	15	0	1.0633	57	0	0	0	0	0	0	0	0	0	0	0	0	0	0	0.0000	0.0000	0.0000	0.0000;
	313	30	19.9999987	20	0	1.11555103	53.9	1	30	30	0	0	0	0	0	0	0	0	0	0	0	100.0548	0.0000	0.4177	0.0000;
	313	0	0	20	0	1.08629	53.9	0	0	0	0	0	0	0	0	0	0	0	0	0	0	0.0000	0.0000	0.0000	0.0000;
	314	0	0	40	0	1.07946	107.7	0	0	0	0	0	0	0	0	0	0	0	0	0	0	0.0000	0.0000	0.0000	0.0000;
	322	2.5	2.99999877	3	0	1.11402034	4.1	1	2.5	2.5	0	0	0	0	0	0	0	0	0	0	0	100.2104	0.0000	0.4569	0.0000;
	365	43.25	11.9999845	12	0	1.111904	47.8	1	43.25	43.25	0	0	0	0	0	0	0	0	0	0	0	105.1929	0.0000	0.1820	0.0000;
	366	43.25	11.9999991	12	0	1.09197534	47.8	1	43.25	43.25	0	0	0	0	0	0	0	0	0	0	0	106.7653	0.0000	0.6081	0.0000;
	367	43.25	11.988993	12	0	1.11972491	47.8	1	43.25	43.25	0	0	0	0	0	0	0	0	0	0	0	104.2927	0.0000	0.0107	0.0000;
	368	43.25	11.999999	12	0	1.11072985	47.8	1	43.25	43.25	0	0	0	0	0	0	0	0	0	0	0	105.9603	0.0000	0.5743	0.0000;
	385	140	40.351485	138	-47	1.10663883	251.3	1	210	140	0	0	0	0	0	0	0	0	0	0	0	0.0000	5.1636	0.0000	0.0000;
	385	0	0	10	0	1.09091	26.9	0	25	12	0	0	0	0	0	0	0	0	0	0	0	0.0000	0.0000	0.0000	0.0000;
	386	10.0000001	6.4941706	10	0	1.10175258	19.7	1	17	10	0	0	0	0	0	0	0	0	0	0	0	0.0000	3.9585	0.0000	0.0000;
	443	1.5	1.9999985	2	0	1.08084054	3.6	1	1.5	1.5	0	0	0	0	0	0	0	0	0	0	0	99.9858	0.0000	0.3760	0.0000;
	452	5.21	1.99999905	2	0	1.0928756	6.1	1	5.21	5.21	0	0	0	0	0	0	0	0	0	0	0	103.9050	0.0000	0.5940	0.0000;
	452	0	0	2	0	1.07378	6.1	0	0	0	0	0	0	0	0	0	0	0	0	0	0	0.0000	0.0000	0.0000	0.0000;
	485	1.4	0.699998848	0.7	0	1.07326702	1.7	1	1.4	1.4	0	0	0	0	0	0	0	0	0	0	0	100.0437	0.0000	0.4892	0.0000;
	536	40	13.9999996	14	0	1.08437199	53.9	1	40	40	0	0	0	0	0	0	0	0	0	0	0	106.7903	0.0000	1.3879	0.0000;
	536	0	0	14	0	1.06099	34.9	0	0	0	0	0	0	0	0	0	0	0	0	0	0	0.0000	0.0000	0.0000	0.0000;
	536	0	0	14	0	1.06099	34	0	0	0	0	0	0	0	0	0	0	0	0	0	0	0.0000	0.0000	0.0000	0.0000;
	536	0	0	14	0	1.06099	105.9	0	0	0	0	0	0	0	0	0	0	0	0	0	0	0.0000	0.0000	0.0000	0.0000;
	536	0	0	14	0	1.06099	105.9	0	0	0	0	0	0	0	0	0	0	0	0	0	0	0.0000	0.0000	0.0000	0.0000;
	537	25	17.4999995	17.5	0	1.08257149	36.5	1	25	25	0	0	0	0	0	0	0	0	0	0	0	106.9407	0.0000	1.2163	0.0000;
	537	25	17.4999995	17.5	0	1.08257149	35.6	1	25	25	0	0	0	0	0	0	0	0	0	0	0	106.9407	0.0000	1.2163	0.0000;
	537	0	0	17.5	0	1.05485	126.2	0	0	0	0	0	0	0	0	0	0	0	0	0	0	0.0000	0.0000	0.0000	0.0000;
	537	0	0	17.5	0	1.05485	106.4	0	0	0	0	0	0	0	0	0	0	0	0	0	0	0.0000	0.0000	0.0000	0.0000;
	551	1.4	0.699999655	0.7	0	1.07685389	1.7	1	1.4	1.4	0	0	0	0	0	0	0	0	0	0	0	107.7864	0.0000	1.6344	0.0000;
	559	30	4.99999961	5	0	1.08178331	34.4	1	30	30	0	0	0	0	0	0	0	0	0	0	0	107.2188	0.0000	1.4662	0.0000;
	559	0	0	5	0	1.05731	28.4	0	0	0	0	0	0	0	0	0	0	0	0	0	0	0.0000	0.0000	0.0000	0.0000;
	559	0	0	5	0	1.05731	26.5	0	0	0	0	0	0	0	0	0	0	0	0	0	0	0.0000	0.0000	0.0000	0.0000;
	559	0	0	5	0	1.05731	30.4	0	0	0	0	0	0	0	0	0	0	0	0	0	0	0.0000	0.0000	0.0000	0.0000;
	559	0	0	5	0	1.05731	34.4	0	0	0	0	0	0	0	0	0	0	0	0	0	0	0.0000	0.0000	0.0000	0.0000;
	560	30	4.99999961	5	0	1.08066205	34.4	1	30	30	0	0	0	0	0	0	0	0	0	0	0	106.9919	0.0000	1.4470	0.0000;
	560	0	0	5	0	1.05563	34.4	0	0	0	0	0	0	0	0	0	0	0	0	0	0	0.0000	0.0000	0.0000	0.0000;
	560	0	0	5	0	1.05563	26.5	0	0	0	0	0	0	0	0	0	0	0	0	0	0	0.0000	0.0000	0.0000	0.0000;
	560	0	0	5	0	1.05563	34.4	0	0	0	0	0	0	0	0	0	0	0	0	0	0	0.0000	0.0000	0.0000	0.0000;
	573	1	3.99999637	4	0	1.10450386	8.9	1	1	1	0	0	0	0	0	0	0	0	0	0	0	101.1277	0.0000	0.1551	0.0000;
	626	78	3.29588648e-06	30	0	1.09418486	97.7	1	78	78	0	0	0	0	0	0	0	0	0	0	0	98.9642	0.0000	0.0000	0.1710;
	626	30	3.29588648e-06	30	0	1.09418486	46.8	1	30	30	0	0	0	0	0	0	0	0	0	0	0	98.9642	0.0000	0.0000	0.1710;
	664	130.000001	59.6761957	145	-34	1.10118144	267.7	1	225	130	0	0	0	0	0	0	0	0	0	0	0	0.0000	0.8036	0.0000	0.0000;
	665	0	0	145	-34	1.09081	267.7	0	225	130	0	0	0	0	0	0	0	0	0	0	0	0.0000	0.0000	0.0000	0.0000;
	685	150	2.02151285e-06	30	0	1.1007322	182.5	1	150	150	0	0	0	0	0	0	0	0	0	0	0	100.9414	0.0000	0.0000	0.2780;
	685	50	2.02151285e-06	30	0	1.1007322	77.5	1	50	50	0	0	0	0	0	0	0	0	0	0	0	100.9414	0.0000	0.0000	0.2780;
	691	2.43	3.3554379e-06	1.8	0	1.093852	3.1	1	2.43	2.43	0	0	0	0	0	0	0	0	0	0	0	101.7644	0.0000	0.0000	0.1672;
	716	1.47	1.88494105e-06	1.3	0	1.07456263	10.1	1	1.47	1.47	0	0	0	0	0	0	0	0	0	0	0	101.3007	0.0000	0.0000	0.2990;
	740	129	-15.9999992	130	-16	1.08571579	259.9	1	225	129	0	0	0	0	0	0	0	0	0	0	0	0.0000	5.3936	0.0000	0.6949;
	763	86	8.01344319e-07	30	0	1.08250718	105.4	1	86	86	0	0	0	0	0	0	0	0	0	0	0	100.7700	0.0000	0.0000	0.7033;
	792	1	0.560619715	1	0	1.06005522	8.4	1	1	1	0	0	0	0	0	0	0	0	0	0	0	102.2784	0.0000	0.0000	0.0000;
	796	68.1	1.99667888	23	0	1.06985593	71.9	1	68.1	5	0	0	0	0	0	0	0	0	0	0	0	100.8772	0.0000	0.0000	0.0000;
	796	0	0	23	0	1.06122	71.9	0	68.1	5	0	0	0	0	0	0	0	0	0	0	0	0.0000	0.0000	0.0000	0.0000;
	796	0	0	11	0	1.06122	32.9	0	31	16	0	0	0	0	0	0	0	0	0	0	0	0.0000	0.0000	0.0000	0.0000;
	796	0	0	10	0	1.06122	32.6	0	31	16	0	0	0	0	0	0	0	0	0	0	0	0.0000	0.0000	0.0000	0.0000;
	807	0	0	10	0	1.08198	125.4	0	125	84	0	0	0	0	0	0	0	0	0	0	0	0.0000	0.0000	0.0000	0.0000;
	808	92	2.9433599e-06	10	0	1.08981379	125.4	1	125	92	0	0	0	0	0	0	0	0	0	0	0	0.0000	11.7045	0.0000	0.1913;
	845	15	1.72026127e-06	8.1	0	1.0710799	33	1	15	15	0	0	0	0	0	0	0	0	0	0	0	101.4658	0.0000	0.0000	0.3280;
	845	15	1.72026127e-06	8.1	0	1.0710799	33	1	15	15	0	0	0	0	0	0	0	0	0	0	0	101.4658	0.0000	0.0000	0.3280;
	845	0	0	0	0	1.07142	19	0	0	0	0	0	0	0	0	0	0	0	0	0	0	0.0000	0.0000	0.0000	0.0000;
	845	0	0	0	0	1.07142	19	0	0	0	0	0	0	0	0	0	0	0	0	0	0	0.0000	0.0000	0.0000	0.0000;
	877	35	12.9275065	41.2	0	1.09010286	87.7	1	35	35	0	0	0	0	0	0	0	0	0	0	0	99.6605	0.0000	0.0000	0.0000;
	900	0	0	45	-10	1.07146	65.8	0	0	0	0	0	0	0	0	0	0	0	0	0	0	0.0000	0.0000	0.0000	0.0000;
	900	50	20.4804622	45	-10	1.08308584	71.1	1	50	50	0	0	0	0	0	0	0	0	0	0	0	100.4191	0.0000	0.0000	0.0000;
	900	0	0	45	-10	1.07146	71.1	0	0	0	0	0	0	0	0	0	0	0	0	0	0	0.0000	0.0000	0.0000	0.0000;
	975	0	0	110	-40	1.07686	162.2	0	0	0	0	0	0	0	0	0	0	0	0	0	0	0.0000	0.0000	0.0000	0.0000;
	976	100	33.722799	110	-40	1.0980613	162.2	1	100	100	0	0	0	0	0	0	0	0	0	0	0	99.8060	0.0000	0.0000	0.0000;
	980	0	0	0	0	1.08643	16.8	0	0	0	0	0	0	0	0	0	0	0	0	0	0	0.0000	0.0000	0.0000	0.0000;
	1001	386	20.0820793	240	-32	1.10297572	454.5	1	386	220	0	0	0	0	0	0	0	0	0	0	0	8.2051	0.0000	0.0000	0.0000;
	1002	370	52.80417	227	-30	1.10123018	434.1	1	370	220	0	0	0	0	0	0	0	0	0	0	0	8.2886	0.0000	0.0000	0.0000;
	1006	6	1.44699722	1.447	0	1.10305489	7.1	1	6	6	0	0	0	0	0	0	0	0	0	0	0	99.5249	0.0000	0.2027	0.0000;
	1005	4	0.446997221	0.447	0	1.10307621	4	1	4	4	0	0	0	0	0	0	0	0	0	0	0	99.5235	0.0000	0.2026	0.0000;
	1006	4	0.446997221	0.447	0	1.10305489	5	1	4	4	0	0	0	0	0	0	0	0	0	0	0	99.5249	0.0000	0.2027	0.0000;
	1006	0	0	0	0	1.08426	6	0	0	0	0	0	0	0	0	0	0	0	0	0	0	0.0000	0.0000	0.0000	0.0000;
	1007	0	0	110	-40	1.08332	174.1	0	0	0	0	0	0	0	0	0	0	0	0	0	0	0.0000	0.0000	0.0000	0.0000;
	1013	15	4.7999966	4.8	0	1.09841823	20.6	1	15	15	0	0	0	0	0	0	0	0	0	0	0	99.3051	0.0000	0.1654	0.0000;
	1013	0	0	0	0	1.07931	12.8	0	0	0	0	0	0	0	0	0	0	0	0	0	0	0.0000	0.0000	0.0000	0.0000;
	1013	0	0	0	0	1.07931	12.5	0	0	0	0	0	0	0	0	0	0	0	0	0	0	0.0000	0.0000	0.0000	0.0000;
	1015	0	0	0	0	1.07594	20	0	0	0	0	0	0	0	0	0	0	0	0	0	0	0.0000	0.0000	0.0000	0.0000;
	1015	0	0	0	0	1.07594	19	0	0	0	0	0	0	0	0	0	0	0	0	0	0	0.0000	0.0000	0.0000	0.0000;
	1024	12	17.9999992	18	9	1.07683466	30	1	12	12	0	0	0	0	0	0	0	0	0	0	0	102.4949	0.0000	0.6975	0.0000;
	1025	0	0	18	9	1.05941	30	0	0	0	0	0	0	0	0	0	0	0	0	0	0	0.0000	0.0000	0.0000	0.0000;
	1026	0	0	14	10.5	1.05936	32.2	0	0	0	0	0	0	0	0	0	0	0	0	0	0	0.0000	0.0000	0.0000	0.0000;
	1113	0	0	37.5	16.8	1.08345	62.5	0	0	0	0	0	0	0	0	0	0	0	0	0	0	0.0000	0.0000	0.0000	0.0000;
	1114	0	0	37.5	7.5	1.07469	62.5	0	0	0	0	0	0	0	0	0	0	0	0	0	0	0.0000	0.0000	0.0000	0.0000;
	1113	50	37.4999919	37.5	7.5	1.09506917	62.5	1	50	50	0	0	0	0	0	0	0	0	0	0	0	100.1224	0.0000	0.0693	0.0000;
	1115	0	0	37.5	16.8	1.08094	62.5	0	0	0	0	0	0	0	0	0	0	0	0	0	0	0.0000	0.0000	0.0000	0.0000;
	1152	17	5.25099668	5.251	0	1.07790819	30.5	1	17	17	0	0	0	0	0	0	0	0	0	0	0	101.6653	0.0000	0.1695	0.0000;
	1152	0	0	0	0	1.06515	6	0	0	0	0	0	0	0	0	0	0	0	0	0	0	0.0000	0.0000	0.0000	0.0000;
	1153	17	5.25099661	5.251	0	1.07801053	30.5	1	17	17	0	0	0	0	0	0	0	0	0	0	0	101.6515	0.0000	0.1662	0.0000;
	1153	0	0	0	0	1.06525	25	0	0	0	0	0	0	0	0	0	0	0	0	0	0	0.0000	0.0000	0.0000	0.0000;
	1154	16	5.24999325	5.25	0	1.08090853	30.5	1	16	16	0	0	0	0	0	0	0	0	0	0	0	100.9979	0.0000	0.0834	0.0000;
	1154	0	0	0	0	1.06879	6	0	0	0	0	0	0	0	0	0	0	0	0	0	0	0.0000	0.0000	0.0000	0.0000;
	1179	70	37.5810898	52.5	0	1.08955009	87.5	1	70	70	0	0	0	0	0	0	0	0	0	0	0	99.8129	0.0000	0.0000	0.0000;
	1180	0	0	52.5	0	1.07255	87.5	0	0	0	0	0	0	0	0	0	0	0	0	0	0	0.0000	0.0000	0.0000	0.0000;
	1180	0	0	42	16.8	1.07255	65.3	0	0	0	0	0	0	0	0	0	0	0	0	0	0	0.0000	0.0000	0.0000	0.0000;
	1188	50	0	0	0	1.08582508	50	1	50	50	0	0	0	0	0	0	0	0	0	0	0	100.0169	0.0000	0.1603	0.0000;
	1246	10	1.99999367	2	0	1.08905845	16.7	1	10	10	0	0	0	0	0	0	0	0	0	0	0	99.4964	0.0000	0.0890	0.0000;
	1246	0	0	0	0	1.07803	24	0	0	0	0	0	0	0	0	0	0	0	0	0	0	0.0000	0.0000	0.0000	0.0000;
	1247	0	0	0	0	1.06772	14.6	0	0	0	0	0	0	0	0	0	0	0	0	0	0	0.0000	0.0000	0.0000	0.0000;
	1247	0	0	0	0	1.06772	14.6	0	0	0	0	0	0	0	0	0	0	0	0	0	0	0.0000	0.0000	0.0000	0.0000;
...
];

%% branch data
%	fbus	tbus	r	x	b	rateA	rateB	rateC	ratio	angle	status	angmin	angmax	Pf	Qf	Pt	Qt	mu_Sf	mu_St	mu_angmin	mu_angmax
mpc.branch = [
	7	8	0.00064	0.0305	0	400	400	400	1.0435	-0.6	1	-360	360	-187.6496	-7.1931	187.8663	17.5181	0.0000	0.0000	0.0000	0.0000;
	26	28	0.00036	0.02519	0	500	500	500	1.067	0	1	-360	360	86.4729	-24.0542	-86.4461	25.9293	0.0000	0.0000	0.0000	0.0000;
	27	29	0.00036	0.02519	0	500	500	500	1.0671	0	1	-360	360	212.8017	-21.9271	-212.6495	32.5815	0.0000	0.0000	0.0000	0.0000;
	39	41	0.00034	0.02097	0	500	500	500	1.1102	0	1	-360	360	-18.9061	-113.9932	18.9515	116.7941	0.0000	0.0000	0.0000	0.0000;
	42	45	0.00034	0.02097	0	500	500	500	1.0917	0	1	-360	360	-37.6955	-132.2763	37.7599	136.2486	0.0000	0.0000	0.0000	0.0000;
	54	56	0.00081	0.03	0	400	400	400	1.0466	0	1	-360	360	18.5856	-3.8964	-18.5829	3.9957	0.0000	0.0000	0.0000	0.0000;
	89	91	0.00075	0.02444	-0.00832	330	330	330	1.0553	0	1	-360	360	-91.2312	-4.4920	91.2885	7.2697	0.0000	0.0000	0.0000	0.0000;
	90	92	0.00075	0.02469	-0.008	330	330	330	1.0552	0	1	-360	360	-90.5126	-4.0499	90.5689	6.7808	0.0000	0.0000	0.0000	0.0000;
	124	127	0.0005	0.02875	-0.016	400	400	400	1.087	0	1	-360	360	80.8506	-87.3055	-80.7807	93.0022	0.0000	0.0000	0.0000	0.0000;
	148	149	0.00064	0.0305	0	400	400	400	1.0636	0	1	-360	360	-75.0441	14.9509	75.0785	-13.3111	0.0000	0.0000	0.0000	0.0000;
	154	156	0.000232	0.023	0	500	500	500	1.0953	0	1	-360	360	34.6456	-54.0747	-34.6359	55.0387	0.0000	0.0000	0.0000	0.0000;
	155	157	0.000232	0.023	0	500	500	500	1.0953	0	1	-360	360	33.5704	-53.9159	-33.5609	54.8587	0.0000	0.0000	0.0000	0.0000;
	168	170	0.00035	0.02375	0	500	500	500	1.0767	0	1	-360	360	41.0612	-54.7052	-41.0453	55.7853	0.0000	0.0000	0.0000	0.0000;
	182	183	0.00059	0.03093	0	400	400	400	1.0504	0	1	-360	360	-64.7576	3.9735	64.7806	-2.7663	0.0000	0.0000	0.0000	0.0000;
	189	191	0.0004	0.03	0	500	500	500	1.0695	3.6	1	-360	360	-220.2700	-27.8878	220.4649	42.5052	0.0000	0.0000	0.0000	0.0000;
	2726	156	0.00031	0.00338	0.0992	1386	1386	1386	0	0	1	-360	360	-66.6740	15.5437	66.6889	-25.3948	0.0000	0.0000	0.0000	0.0000;
	2726	157	0.00031	0.00338	0.0992	1386	1386	1386	0	0	1	-360	360	-69.6570	15.9943	69.6733	-25.8311	0.0000	0.0000	0.0000	0.0000;
	2727	67	0.014341	0.083531	0.126034	385	385	385	0	0	1	-360	360	125.0000	0.0000	-123.1174	-3.8445	0.0000	0.0000	0.0000	0.0000;
	2725	75	0.01219	0.070659	0.117418	412	412	412	0	0	1	-360	360	-174.5833	36.1247	177.8380	-31.4576	0.0000	0.0000	0.0000	0.0000;
	2725	104	0.011781	0.07087	0.116838	412	412	412	0	0	1	-360	360	-196.6167	39.4403	200.5860	-29.7055	0.0000	0.0000	0.0000	0.0000;
	126	2724	0.001525	0.016837	0.50576	1386	1386	1386	0	0	1	-360	360	434.1786	-13.9326	-431.5000	-10.5040	0.0000	0.0000	0.0000	0.0000;
	2728	147	0.001651	0.015909	0.046948	316	316	316	0	0	1	-360	360	88.6204	-23.3018	-88.5092	18.5973	0.0000	0.0000	0.0000	0.0000;
	2728	148	0.001651	0.015909	0.046948	316	316	316	0	0	1	-360	360	88.0706	-22.8032	-87.9611	18.0838	0.0000	0.0000	0.0000	0.0000;
	2729	47	0.00188	0.02287	0.6432	831	831	831	0	0	1	-360	360	-154.0303	-94.3011	154.5249	32.1549	0.0000	0.0000	0.0000	0.0000;
	2729	48	0.00188	0.02287	0.6432	831	831	831	0	0	1	-360	360	-153.5517	-94.2219	154.0434	32.0434	0.0000	0.0000	0.0000	0.0000;
	81	2723	0.002769	0.031162	0.89824	1386	1386	1386	0	0	1	-360	360	178.4320	-54.7007	-177.6040	-31.6380	0.0000	0.0000	0.0000	0.0000;
	42	23	0.01345	0.081141	0.141134	339	339	339	0	0	1	-360	360	156.5128	21.0148	-153.6469	-19.9920	0.0000	0.0000	0.0000	0.0000;
	26	89	0.009091	0.062401	0.111417	453	453	453	0	0	1	-360	360	140.5053	-10.3649	-139.0478	6.7243	0.0000	0.0000	0.0000	0.0000;
	27	90	0.00868	0.06405	0.096994	427	427	427	0	0	1	-360	360	192.8248	-10.6987	-190.2039	18.1600	0.0000	0.0000	0.0000	0.0000;
	145	30	0.016961	0.123659	0.196988	316	316	316	0	0	1	-360	360	81.5280	18.5257	-80.4814	-34.1872	0.0000	0.0000	0.0000	0.0000;
	134	33	0.00512	0.02618	0.029621	301	301	301	0	0	1	-360	360	-74.9988	58.8972	75.3857	-60.5332	0.0000	0.0000	0.0000	0.0000;
	133	20	0.01068	0.061961	0.094961	385	385	385	0	0	1	-360	360	-139.1801	47.0461	141.1017	-47.4613	0.0000	0.0000	0.0000	0.0000;
	163	21	0.014651	0.105891	0.170852	316	316	316	0	0	1	-360	360	102.8542	13.8516	-101.5255	-24.6897	0.0000	0.0000	0.0000	0.0000;
	40	108	0.01488	0.08161	0.114805	314	314	314	0	0	1	-360	360	-71.2329	21.8937	71.9472	-31.9878	0.0000	0.0000	0.0000	0.0000;
	39	90	0.011159	0.07231	0.103673	324	324	324	0	0	1	-360	360	-115.7082	26.0477	117.0161	-30.2696	0.0000	0.0000	0.0000	0.0000;
	177	82	0.005517	0.059484	0.170775	316	316	316	0	0	1	-360	360	-155.7288	-1.5898	156.8752	-6.1625	0.0000	0.0000	0.0000	0.0000;
	202	164	0.01176	0.068289	0.102802	324	324	324	0	0	1	-360	360	-208.9559	-17.9527	213.4428	31.7730	0.0000	0.0000	0.0000	0.0000;
	193	164	0.016818	0.089091	0.129935	358	358	358	0	0	1	-360	360	-148.3081	-10.8590	151.4967	12.2044	0.0000	0.0000	0.0000	0.0000;
	192	163	0.013843	0.087025	0.134842	383	383	383	0	0	1	-360	360	-152.7472	-15.5239	155.5367	16.9277	0.0000	0.0000	0.0000	0.0000;
	206	166	0.01676	0.097169	0.148685	269	269	269	0	0	1	-360	360	6.5735	-12.8123	-6.5651	-4.7260	0.0000	0.0000	0.0000	0.0000;
	42	10	0.01269	0.074979	0.130196	351	351	351	0	0	1	-360	360	168.9439	20.1554	-165.8178	-16.7231	0.0000	0.0000	0.0000	0.0000;
	197	18	0.014091	0.10413	0.15972	316	316	316	0	0	1	-360	360	-34.1718	-23.5171	34.3395	6.0085	0.0000	0.0000	0.0000	0.0000;
	99	54	0.003719	0.0438	0.100962	457	457	457	0	0	1	-360	360	-12.6420	4.4014	12.6503	-16.3946	0.0000	0.0000	0.0000	0.0000;
	161	81	0.00194	0.02056	0.51584	1178	1178	1178	0	0	1	-360	360	-478.3271	-44.7174	482.6393	36.3301	0.0000	0.0000	0.0000	0.0000;
	44	9	0.0015	0.01506	0.4032	1386	1386	1386	0	0	1	-360	360	337.5027	-34.4035	-335.8812	8.2052	0.0000	0.0000	0.0000	0.0000;
	184	149	0.00294	0.03463	0.9216	693	693	693	0	0	1	-360	360	-39.2759	-52.0500	39.3181	-46.9197	0.0000	0.0000	0.0000	0.0000;
	120	56	0.00169	0.01994	0.50624	831	831	831	0	0	1	-360	360	-22.0238	-0.5016	22.0427	-54.7961	0.0000	0.0000	0.0000	0.0000;
	29	92	0.00137	0.01625	0.41184	1386	1386	1386	0	0	1	-360	360	211.1932	-46.4216	-210.6276	8.0025	0.0000	0.0000	0.0000	0.0000;
	28	122	0.00231	0.02769	0.70144	1386	1386	1386	0	0	1	-360	360	310.9165	-66.8942	-308.8585	14.5211	0.0000	0.0000	0.0000	0.0000;
	25	191	0.00207	0.02474	0.664	1386	1386	1386	0	0	1	-360	360	394.2727	8.9460	-391.2095	-42.0004	0.0000	0.0000	0.0000	0.0000;
	119	63	0.0015	0.01788	0.4512	831	831	831	0	0	1	-360	360	88.5148	-25.0517	-88.4081	-23.3338	0.0000	0.0000	0.0000	0.0000;
	121	63	0.00469	0.05544	1.4048	831	831	831	0	0	1	-360	360	111.6560	-80.9434	-111.1251	-67.4379	0.0000	0.0000	0.0000	0.0000;
	81	31	0.00331	0.03425	0.85888	977	977	977	0	0	1	-360	360	-129.3144	-64.5291	129.8444	-22.5687	0.0000	0.0000	0.0000	0.0000;
	91	28	0.00219	0.02369	0.59584	1178	1178	1178	0	0	1	-360	360	-143.5765	-10.5490	143.9977	-50.1838	0.0000	0.0000	0.0000	0.0000;
	12	4	0.01674	0.09711	0.144232	427	427	427	0	0	1	-360	360	-223.9710	15.2208	231.5530	12.0847	0.0000	0.0000	0.0000	0.0000;
	30	11	0.0057	0.0407	0.06021	316	316	316	0	0	1	-360	360	-9.5548	17.5317	9.5814	-24.1306	0.0000	0.0000	0.0000	0.0000;
	24	4	0.004419	0.032229	0.049852	383	383	383	0	0	1	-360	360	176.1570	-3.1623	-175.0199	5.4749	0.0000	0.0000	0.0000	0.0000;
	17	7	0.014591	0.11219	0.165528	383	383	383	0	0	1	-360	360	-90.8240	33.3856	92.0608	-43.1462	0.0000	0.0000	0.0000	0.0000;
	21	10	0.01211	0.087419	0.140166	316	316	316	0	0	1	-360	360	-15.1842	17.7169	15.2780	-33.0222	0.0000	0.0000	0.0000	0.0000;
	26	5	0.009773	0.050516	0.088959	377	377	377	0	0	1	-360	360	190.7920	3.7726	-187.8978	0.3991	0.0000	0.0000	0.0000	0.0000;
	17	3	0.01068	0.07895	0.245194	274	274	274	0	0	1	-360	360	75.6309	-11.4074	-75.1183	-13.8574	0.0000	0.0000	0.0000	0.0000;
	26	19	0.0057	0.039521	0.075533	440	440	440	0	0	1	-360	360	190.2983	10.2990	-188.6127	-7.8091	0.0000	0.0000	0.0000	0.0000;
	27	20	0.0057	0.039521	0.075533	440	440	440	0	0	1	-360	360	279.4721	4.1591	-275.8552	11.7207	0.0000	0.0000	0.0000	0.0000;
	13	6	0.00525	0.03988	0.061952	316	316	316	0	0	1	-360	360	-3.7923	-21.2469	3.8078	14.3842	0.0000	0.0000	0.0000	0.0000;
	13	12	2.1e-05	0.000207	0	316	316	316	0	0	1	-360	360	-92.4943	-8.6445	92.4959	8.6605	0.0000	0.0000	0.0000	0.0000;
	32	13	0.00093	0.00651	0.011132	316	316	316	0	0	1	-360	360	-96.2018	-30.5411	96.2866	29.8914	0.0000	0.0000	0.0000	0.0000;
	23	11	0.00205	0.01326	0.022429	385	385	385	0	0	1	-360	360	-3.1780	-18.7285	3.1838	16.2602	0.0000	0.0000	0.0000	0.0000;
	33	5	0.007831	0.043	0.04962	301	301	301	0	0	1	-360	360	-102.3669	35.5462	103.1422	-37.2480	0.0000	0.0000	0.0000	0.0000;
	19	4	0.00293	0.01599	0.024781	324	324	324	0	0	1	-360	360	134.1508	6.6648	-133.7109	-7.2340	0.0000	0.0000	0.0000	0.0000;
	26	1	0.00155	0.01169	0.018198	633	633	633	0	0	1	-360	360	70.5735	74.9895	-70.4380	-76.1914	0.0000	0.0000	0.0000	0.0000;
	27	2	0.00155	0.01169	0.018198	633	633	633	0	0	1	-360	360	57.8416	29.2248	-57.7879	-31.0542	0.0000	0.0000	0.0000	0.0000;
	27	24	0.003841	0.028531	0.045883	392	392	392	0	0	1	-360	360	262.1987	15.8035	-260.0447	-5.3968	0.0000	0.0000	0.0000	0.0000;
	25	9	0.00298	0.03418	0.93504	831	831	831	0	0	1	-360	360	-40.8538	-28.1874	40.9136	-70.0256	0.0000	0.0000	0.0000	0.0000;
	28	25	0.00358	0.04262	1.0944	1386	1386	1386	0	0	1	-360	360	505.4242	-16.1029	-497.0035	-1.7298	0.0000	0.0000	0.0000	0.0000;
	14	29	0.00336	0.03977	1.02163	1316	1316	1316	0	0	1	-360	360	-431.7918	-52.8666	437.8350	15.5493	0.0000	0.0000	0.0000	0.0000;
	8	15	0.00299	0.03675	0.9184	1150	1150	1150	0	0	1	-360	360	134.7626	-72.5319	-134.2295	-18.0589	0.0000	0.0000	0.0000	0.0000;
	8	14	0.00112	0.01329	0.341248	1150	1150	1150	0	0	1	-360	360	-182.0256	56.3800	182.4373	-87.1256	0.0000	0.0000	0.0000	0.0000;
	31	29	0.00075	0.009	0.22848	1150	1150	1150	0	0	1	-360	360	-298.8679	-9.5877	299.4828	-7.9814	0.0000	0.0000	0.0000	0.0000;
	62	58	0.010479	0.060969	0.092047	269	269	269	0	0	1	-360	360	1.6724	7.7524	-1.6567	-18.5702	0.0000	0.0000	0.0000	0.0000;
	60	55	0.00882	0.065641	0.100662	274	274	274	0	0	1	-360	360	-36.5051	14.9521	36.6342	-26.1086	0.0000	0.0000	0.0000	0.0000;
	66	34	0.011219	0.065581	0.098349	274	274	274	0	0	1	-360	360	16.5303	1.1989	-16.4995	-12.4811	0.0000	0.0000	0.0000	0.0000;
	50	34	0.01163	0.07031	0.105802	341	341	341	0	0	1	-360	360	-5.5791	-8.5830	5.5829	-3.6325	0.0000	0.0000	0.0000	0.0000;
	58	42	0.00545	0.040211	0.066986	404	404	404	0	0	1	-360	360	-23.1631	-17.2707	23.1962	9.5863	0.0000	0.0000	0.0000	0.0000;
	59	43	0.00545	0.040211	0.066986	404	404	404	0	0	1	-360	360	-23.9841	-16.8765	24.0185	9.2024	0.0000	0.0000	0.0000	0.0000;
	59	34	0.00837	0.04868	0.073481	379	379	379	0	0	1	-360	360	7.8369	12.7169	-7.8119	-21.1541	0.0000	0.0000	0.0000	0.0000;
	67	51	0.003159	0.02076	0.03146	385	385	385	0	0	1	-360	360	68.5060	-8.6720	-68.3764	5.8901	0.0000	0.0000	0.0000	0.0000;
	51	38	0.006979	0.051961	0.079666	316	316	316	0	0	1	-360	360	42.2382	5.8237	-42.1238	-14.1025	0.0000	0.0000	0.0000	0.0000;
	36	55	0.00374	0.027831	0.042689	274	274	274	0	0	1	-360	360	-76.5966	-10.3091	76.7840	6.6313	0.0000	0.0000	0.0000	0.0000;
	37	35	0.00769	0.057271	0.087894	316	316	316	0	0	1	-360	360	36.1527	4.9929	-36.0610	-14.6334	0.0000	0.0000	0.0000	0.0000;
	54	37	0.00556	0.04145	0.063598	383	383	383	0	0	1	-360	360	51.8218	2.4799	-51.6949	-9.0906	0.0000	0.0000	0.0000	0.0000;
	66	36	0.004521	0.03368	0.051691	392	392	392	0	0	1	-360	360	-56.8741	-11.4717	57.0016	6.3358	0.0000	0.0000	0.0000	0.0000;
	66	65	0.00151	0.008781	0.013165	341	341	341	0	0	1	-360	360	40.3437	10.2728	-40.3212	-11.6824	0.0000	0.0000	0.0000	0.0000;
	61	42	0.00574	0.042831	0.065727	404	404	404	0	0	1	-360	360	-20.0466	2.5571	20.0680	-10.2315	0.0000	0.0000	0.0000	0.0000;
	62	43	0.00707	0.045409	0.069309	314	314	314	0	0	1	-360	360	-19.6560	2.6418	19.6816	-10.7369	0.0000	0.0000	0.0000	0.0000;
	61	39	0.01213	0.062151	0.093712	314	314	314	0	0	1	-360	360	-59.9046	-23.9433	60.3035	14.6224	0.0000	0.0000	0.0000	0.0000;
	60	40	0.002479	0.017979	0.027588	316	316	316	0	0	1	-360	360	-72.1600	-40.8334	72.2976	38.4578	0.0000	0.0000	0.0000	0.0000;
	46	39	0.002401	0.01494	0.022525	341	341	341	0	0	1	-360	360	-73.1369	-15.0565	73.2455	12.9654	0.0000	0.0000	0.0000	0.0000;
	49	45	0.00167	0.0189	0.54176	1150	1150	1150	0	0	1	-360	360	-45.8486	12.3099	45.9080	-69.1849	0.0000	0.0000	0.0000	0.0000;
	57	53	0.00109	0.01277	0.34176	1150	1150	1150	0	0	1	-360	360	141.6302	25.3697	-141.4106	-59.8641	0.0000	0.0000	0.0000	0.0000;
	41	57	0.002259	0.026439	0.70784	1150	1150	1150	0	0	1	-360	360	-18.9515	-116.7941	19.0961	42.7558	0.0000	0.0000	0.0000	0.0000;
	63	57	0.00094	0.01097	0.29376	1393	1393	1393	0	0	1	-360	360	-183.5012	36.7914	183.8131	-65.3330	0.0000	0.0000	0.0000	0.0000;
	47	64	0.00113	0.01406	0.37488	1386	1386	1386	0	0	1	-360	360	-330.3745	-64.7168	331.5402	38.4249	0.0000	0.0000	0.0000	0.0000;
	52	44	0.00176	0.02144	0.57344	1150	1150	1150	0	0	1	-360	360	25.3508	19.1376	-25.2994	-79.6670	0.0000	0.0000	0.0000	0.0000;
	95	124	0.004876	0.033616	0.059609	404	404	404	0	0	1	-360	360	-81.9570	-11.9193	82.2340	6.6648	0.0000	0.0000	0.0000	0.0000;
	74	105	0.01093	0.059194	0.08439	246	246	246	0	0	1	-360	360	4.1526	-4.6997	-4.1510	-5.4241	0.0000	0.0000	0.0000	0.0000;
	105	93	0.001942	0.013926	0.022845	404	404	404	0	0	1	-360	360	72.7461	2.2629	-72.6602	-4.3843	0.0000	0.0000	0.0000	0.0000;
	78	84	0.004318	0.029752	0.05264	316	316	316	0	0	1	-360	360	112.9355	-9.0027	-112.4797	5.7803	0.0000	0.0000	0.0000	0.0000;
	130	129	0.000661	0.004959	0.007579	379	379	379	0	0	1	-360	360	95.3201	-1.5689	-95.2706	1.0201	0.0000	0.0000	0.0000	0.0000;
	106	130	0.005372	0.040393	0.060055	379	379	379	0	0	1	-360	360	-39.9467	-15.8108	40.0248	9.1491	0.0000	0.0000	0.0000	0.0000;
	90	130	0.000826	0.005248	0.008683	301	301	301	0	0	1	-360	360	135.4698	7.3184	-135.3449	-7.5802	0.0000	0.0000	0.0000	0.0000;
	99	118	0.015888	0.087603	0.116818	314	314	314	0	0	1	-360	360	-60.9019	2.7117	61.4048	-14.0051	0.0000	0.0000	0.0000	0.0000;
	80	112	0.002169	0.014587	0.025749	269	269	269	0	0	1	-360	360	-11.5243	-8.4910	11.5276	5.4388	0.0000	0.0000	0.0000	0.0000;
	115	100	0.017727	0.116777	0.163611	246	246	246	0	0	1	-360	360	62.5181	-13.9032	-61.9432	-2.0386	0.0000	0.0000	0.0000	0.0000;
	125	73	0.00593	0.04093	0.072145	404	404	404	0	0	1	-360	360	49.4913	-2.0934	-49.3709	-5.7694	0.0000	0.0000	0.0000	0.0000;
	107	89	0.003905	0.028471	0.044983	383	383	383	0	0	1	-360	360	-85.6773	-4.5833	85.9145	0.8555	0.0000	0.0000	0.0000	0.0000;
	117	78	0.008161	0.042417	0.061197	356	356	356	0	0	1	-360	360	-60.7907	2.8154	61.0435	-8.8997	0.0000	0.0000	0.0000	0.0000;
	118	77	0.008161	0.042417	0.061197	356	356	356	0	0	1	-360	360	-59.9706	-1.0383	60.2144	-5.1032	0.0000	0.0000	0.0000	0.0000;
	78	75	0.005186	0.038388	0.058748	453	453	453	0	0	1	-360	360	131.8922	-12.4857	-131.1441	10.9199	0.0000	0.0000	0.0000	0.0000;
	77	72	0.002128	0.014029	0.022603	301	301	301	0	0	1	-360	360	122.8351	3.4026	-122.5704	-4.3955	0.0000	0.0000	0.0000	0.0000;
	113	77	0.004628	0.027748	0.046115	324	324	324	0	0	1	-360	360	-93.7944	-20.6707	94.1474	17.2305	0.0000	0.0000	0.0000	0.0000;
	102	71	0.011219	0.070744	0.115705	246	246	246	0	0	1	-360	360	-57.3572	-8.2035	57.6670	-3.7297	0.0000	0.0000	0.0000	0.0000;
	109	116	0.006012	0.041467	0.073636	383	383	383	0	0	1	-360	360	-86.2500	-6.8643	86.6241	0.5839	0.0000	0.0000	0.0000	0.0000;
	90	68	0.002066	0.012789	0.020551	269	269	269	0	0	1	-360	360	73.4870	5.9620	-73.3945	-7.8859	0.0000	0.0000	0.0000	0.0000;
	85	89	0.001364	0.009731	0.016243	453	453	453	0	0	1	-360	360	-98.9976	-0.9775	99.1076	-0.2122	0.0000	0.0000	0.0000	0.0000;
	128	86	0.000579	0.004112	0.007008	404	404	404	0	0	1	-360	360	-54.1188	-8.1218	54.1330	7.3724	0.0000	0.0000	0.0000	0.0000;
	131	75	0.000847	0.00624	0.009544	457	457	457	0	0	1	-360	360	123.5000	31.0000	-123.3865	-31.3185	0.0000	0.0000	0.0000	0.0000;
	132	76	0.000847	0.00626	0.009477	457	457	457	0	0	1	-360	360	-0.0000	0.0000	0.0000	-1.1435	0.0000	0.0000	0.0000	0.0000;
	101	76	0.001591	0.011116	0.019128	453	453	453	0	0	1	-360	360	-76.5750	-54.4672	76.6912	52.9850	0.0000	0.0000	0.0000	0.0000;
	124	103	0.003141	0.021591	0.038391	404	404	404	0	0	1	-360	360	139.4739	-22.0228	-138.9584	20.9238	0.0000	0.0000	0.0000	0.0000;
	125	110	0.004545	0.03157	0.055312	316	316	316	0	0	1	-360	360	87.4325	27.3575	-87.1097	-31.7270	0.0000	0.0000	0.0000	0.0000;
	103	83	0.001446	0.009917	0.017598	316	316	316	0	0	1	-360	360	-1.7521	16.3101	1.7558	-18.4106	0.0000	0.0000	0.0000	0.0000;
	104	94	0.003822	0.026674	0.046154	316	316	316	0	0	1	-360	360	8.2223	20.6451	-8.2028	-26.0606	0.0000	0.0000	0.0000	0.0000;
	111	79	0.007769	0.041281	0.063907	269	269	269	0	0	1	-360	360	-6.5788	-15.2016	6.5902	7.6737	0.0000	0.0000	0.0000	0.0000;
	88	77	0.004463	0.030413	0.048671	246	246	246	0	0	1	-360	360	-90.1894	-23.5230	90.5095	19.8445	0.0000	0.0000	0.0000	0.0000;
	116	107	0.005888	0.035062	0.052349	246	246	246	0	0	1	-360	360	55.9888	-10.6740	-55.8335	5.2668	0.0000	0.0000	0.0000	0.0000;
	108	98	0.003161	0.023409	0.036165	316	316	316	0	0	1	-360	360	-49.6998	6.4907	49.7663	-10.3690	0.0000	0.0000	0.0000	0.0000;
	115	78	0.001839	0.012603	0.022399	316	316	316	0	0	1	-360	360	-60.6707	1.9698	60.7268	-4.2972	0.0000	0.0000	0.0000	0.0000;
	106	87	0.001715	0.009607	0.014239	301	301	301	0	0	1	-360	360	21.3300	29.2459	-21.3106	-30.8408	0.0000	0.0000	0.0000	0.0000;
	97	78	0.003409	0.024421	0.039969	246	246	246	0	0	1	-360	360	-64.5841	0.5393	64.7020	-4.5302	0.0000	0.0000	0.0000	0.0000;
	116	77	0.001839	0.012603	0.02239	316	316	316	0	0	1	-360	360	-55.2457	-11.2784	55.2936	8.8921	0.0000	0.0000	0.0000	0.0000;
	82	96	0.005702	0.041488	0.066172	404	404	404	0	0	1	-360	360	-23.4822	-12.1852	23.5121	4.5285	0.0000	0.0000	0.0000	0.0000;
	123	117	0.004587	0.024628	0.036165	314	314	314	0	0	1	-360	360	-76.2409	-10.5828	76.4668	7.4528	0.0000	0.0000	0.0000	0.0000;
	123	109	0.002149	0.013327	0.022109	246	246	246	0	0	1	-360	360	-11.0072	-5.2222	11.0096	2.5936	0.0000	0.0000	0.0000	0.0000;
	99	70	0.000785	0.004876	0.00726	269	269	269	0	0	1	-360	360	8.0325	2.8448	-8.0320	-3.7140	0.0000	0.0000	0.0000	0.0000;
	100	69	0.000785	0.004876	0.007241	269	269	269	0	0	1	-360	360	10.3277	-0.8658	-10.3270	-0.0000	0.0000	0.0000	0.0000	0.0000;
	92	126	0.002413	0.027544	0.767968	831	831	831	0	0	1	-360	360	172.3465	-11.5056	-171.6726	-64.1864	0.0000	0.0000	0.0000	0.0000;
	81	126	0.002131	0.024319	0.67744	1386	1386	1386	0	0	1	-360	360	40.0780	-55.7436	-40.0382	-16.3063	0.0000	0.0000	0.0000	0.0000;
	121	114	0.000913	0.0104	0.289888	1150	1150	1150	0	0	1	-360	360	34.9527	66.4034	-34.8864	-97.3503	0.0000	0.0000	0.0000	0.0000;
	122	120	0.003119	0.035631	0.991072	831	831	831	0	0	1	-360	360	129.3007	-62.2431	-128.8261	-41.5662	0.0000	0.0000	0.0000	0.0000;
	114	127	0.000919	0.010512	0.292928	1150	1150	1150	0	0	1	-360	360	-69.2452	40.7314	69.3129	-71.5773	0.0000	0.0000	0.0000	0.0000;
	172	155	0.01545	0.073349	0.126614	427	427	427	0	0	1	-360	360	-198.4396	19.8628	203.8794	-8.7240	0.0000	0.0000	0.0000	0.0000;
	173	154	0.01545	0.073349	0.126614	427	427	427	0	0	1	-360	360	-198.4796	19.9065	203.9220	-8.7546	0.0000	0.0000	0.0000	0.0000;
	175	154	0.01457	0.07955	0.14007	324	324	324	0	0	1	-360	360	-70.9076	-1.9489	71.5402	-11.0380	0.0000	0.0000	0.0000	0.0000;
	176	155	0.01457	0.07955	0.14007	324	324	324	0	0	1	-360	360	-70.4892	-2.0856	71.1142	-10.9435	0.0000	0.0000	0.0000	0.0000;
	175	143	0.006031	0.04401	0.069793	316	316	316	0	0	1	-360	360	71.9055	-6.1790	-71.6380	0.0068	0.0000	0.0000	0.0000	0.0000;
	164	139	0.011031	0.08057	0.124127	404	404	404	0	0	1	-360	360	191.7625	0.3092	-188.4646	8.7046	0.0000	0.0000	0.0000	0.0000;
	136	154	0.005831	0.04231	0.070664	383	383	383	0	0	1	-360	360	-105.1319	2.9589	105.6840	-7.2667	0.0000	0.0000	0.0000	0.0000;
	169	172	0.01849	0.095599	0.159139	305	305	305	0	0	1	-360	360	-67.0908	34.0071	68.0820	-47.4358	0.0000	0.0000	0.0000	0.0000;
	151	173	0.010581	0.053	0.088475	385	385	385	0	0	1	-360	360	-95.8111	18.8717	96.7149	-24.4356	0.0000	0.0000	0.0000	0.0000;
	153	155	0.012521	0.091359	0.145394	453	453	453	0	0	1	-360	360	-170.7917	39.0795	174.0658	-32.5186	0.0000	0.0000	0.0000	0.0000;
	135	136	0.00506	0.036539	0.063598	305	305	305	0	0	1	-360	360	-47.8559	-1.9937	47.9552	-4.7344	0.0000	0.0000	0.0000	0.0000;
	147	142	0.01043	0.077891	0.122065	383	383	383	0	0	1	-360	360	10.4499	6.0263	-10.4251	-20.7397	0.0000	0.0000	0.0000	0.0000;
	152	180	0.007702	0.056917	0.086733	316	316	316	0	0	1	-360	360	27.5447	48.8444	-27.3090	-57.2569	0.0000	0.0000	0.0000	0.0000;
	152	179	0.002256	0.016674	0.02541	333	333	333	0	0	1	-360	360	-166.2790	-63.7284	166.8700	65.0025	0.0000	0.0000	0.0000	0.0000;
	174	146	0.009147	0.089554	0.215196	246	246	246	0	0	1	-360	360	-121.8169	-17.6168	122.9611	2.8082	0.0000	0.0000	0.0000	0.0000;
	174	168	0.00244	0.01318	0.021296	341	341	341	0	0	0	-360	360	0.0000	0.0000	0.0000	0.0000	0.0000	0.0000	0.0000	0.0000;
	168	139	0.00355	0.02593	0.041237	404	404	404	0	0	1	-360	360	-97.5360	3.8827	97.8204	-6.7319	0.0000	0.0000	0.0000	0.0000;
	169	166	0.01312	0.076219	0.116644	324	324	324	0	0	1	-360	360	81.7327	-14.3416	-80.9917	4.7758	0.0000	0.0000	0.0000	0.0000;
	168	151	0.009341	0.05225	0.087701	305	305	305	0	0	1	-360	360	-24.2923	48.4711	24.5644	-57.1854	0.0000	0.0000	0.0000	0.0000;
	145	134	0.006141	0.032521	0.052456	356	356	356	0	0	1	-360	360	-213.1961	39.1979	215.5566	-33.1531	0.0000	0.0000	0.0000	0.0000;
	146	133	0.00438	0.03188	0.050723	453	453	453	0	0	1	-360	360	-221.4188	29.4430	223.2034	-22.6956	0.0000	0.0000	0.0000	0.0000;
	163	146	0.000479	0.00331	0.005711	404	404	404	0	0	1	-360	360	-88.1941	55.6873	88.2366	-56.0968	0.0000	0.0000	0.0000	0.0000;
	164	145	0.000479	0.00331	0.005711	404	404	404	0	0	1	-360	360	-93.7115	55.7116	93.7579	-56.0941	0.0000	0.0000	0.0000	0.0000;
	153	142	0.010539	0.076859	0.122355	316	316	316	0	0	1	-360	360	115.3749	-22.6466	-114.1883	16.5445	0.0000	0.0000	0.0000	0.0000;
	158	147	0.00469	0.034651	0.053821	383	383	383	0	0	1	-360	360	-141.5053	-16.0303	142.2891	15.2550	0.0000	0.0000	0.0000	0.0000;
	148	140	0.006469	0.0413	0.069212	383	383	383	0	0	1	-360	360	121.0466	5.7457	-120.2719	-9.2512	0.0000	0.0000	0.0000	0.0000;
	167	140	0.00105	0.007211	0.01028	316	316	316	0	0	1	-360	360	-39.0355	-7.8530	39.0492	6.7040	0.0000	0.0000	0.0000	0.0000;
	167	158	0.006099	0.044831	0.070954	316	316	316	0	0	1	-360	360	-7.6257	-2.8755	7.6288	-5.6740	0.0000	0.0000	0.0000	0.0000;
	175	135	0.002211	0.01655	0.024781	316	316	316	0	0	1	-360	360	29.3246	-10.6452	-29.3067	7.8851	0.0000	0.0000	0.0000	0.0000;
	177	176	0.005169	0.036979	0.058951	316	316	316	0	0	1	-360	360	68.0322	-7.4977	-67.8271	2.0755	0.0000	0.0000	0.0000	0.0000;
	180	172	0.002401	0.017789	0.027588	381	381	381	0	0	1	-360	360	-104.9721	10.9391	105.2078	-12.3343	0.0000	0.0000	0.0000	0.0000;
	156	137	0.00274	0.02696	0.70592	977	977	977	0	0	1	-360	360	127.8330	-53.9943	-127.3800	-12.9212	0.0000	0.0000	0.0000	0.0000;
	162	138	0.0017	0.01733	0.45632	915	915	915	0	0	1	-360	360	113.1089	17.4351	-112.8702	-61.6360	0.0000	0.0000	0.0000	0.0000;
	160	161	0.00136	0.01574	0.433664	1469	1469	1469	0	0	1	-360	360	-129.4329	-28.7624	129.6558	-13.2301	0.0000	0.0000	0.0000	0.0000;
...